@<TRIPOS>MOLECULE
UNK
   14    13     1     0     0
SMALL
bcc


@<TRIPOS>ATOM
      1 O            5.0920     3.3230     4.1470 oh         1 UNK      -0.604100
      2 H            5.2250     2.7180     4.7940 ho         1 UNK       0.448000
      3 OXT          2.9490     2.7190     4.3300 o          1 UNK      -0.551000
      4 C1           3.8170     3.4270     3.8380 c          1 UNK       0.636100
      5 C2           3.5480     4.5160     2.8460 c3         1 UNK      -0.131400
      6 H2           4.1670     4.4110     2.0800 hc         1 UNK       0.101200
      7 H3           3.7370     5.3900     3.2700 hc         1 UNK       0.101200
      8 O3           0.5760     3.3230     1.0300 oh         1 UNK      -0.604100
      9 H4           0.4420     2.7180     0.3830 ho         1 UNK       0.448000
     10 O4           2.7190     2.7190     0.8470 o          1 UNK      -0.551000
     11 C3           1.8510     3.4270     1.3390 c          1 UNK       0.636100
     12 C4           2.1190     4.5160     2.3310 c3         1 UNK      -0.131400
     13 H5           1.5010     4.4110     3.0970 hc         1 UNK       0.101200
     14 H6           1.9310     5.3900     1.9070 hc         1 UNK       0.101200
@<TRIPOS>BOND
     1     1     2 1   
     2     1     4 1   
     3     3     4 2   
     4     4     5 1   
     5     5     6 1   
     6     5     7 1   
     7     5    12 1   
     8     8     9 1   
     9     8    11 1   
    10    10    11 2   
    11    11    12 1   
    12    12    13 1   
    13    12    14 1   
@<TRIPOS>SUBSTRUCTURE
     1 UNK         1 TEMP              0 ****  ****    0 ROOT
