@<TRIPOS>MOLECULE
UNK
   34    36     1     0     0
SMALL
bcc


@<TRIPOS>ATOM
      1 C0_0         8.0090     4.1280     2.9460 c          1 UNK       0.675700
      2 C1_0         8.3580     2.7710     3.4850 ca         1 UNK      -0.090600
      3 O0_0         7.2700     4.9170     3.5910 o          1 UNK      -0.626100
      4 N0_0         8.5140     4.4380     1.7440 n          1 UNK      -0.653000
      5 C2_0         7.6800     2.2780     4.6060 ca         1 UNK      -0.091000
      6 C6_0         9.3740     1.9480     2.9390 ca         1 UNK       0.093400
      7 H11          9.1660     3.8030     1.2770 hn         1 UNK       0.314000
      8 H12          8.4590     5.4350     1.4560 hn         1 UNK       0.314000
      9 C3_0         7.9870     1.0330     5.1810 ca         1 UNK      -0.131000
     10 H7_0         6.9030     2.9080     5.0380 ha         1 UNK       0.158000
     11 C5_0         9.6700     0.6920     3.5350 ca         1 UNK      -0.091200
     12 N1_0        10.2350     2.1700     1.8790 nc         1 UNK      -0.611100
     13 C4_0         9.0010     0.2210     4.6640 ca         1 UNK      -0.110000
     14 H6_0         7.4320     0.7000     6.0600 ha         1 UNK       0.138000
     15 N2_0        10.7130     0.1670     2.7900 na         1 UNK      -0.251300
     16 C7_0        11.0150     1.0920     1.8220 cd         1 UNK       0.444800
     17 H8_0         9.2710    -0.7260     5.1270 ha         1 UNK       0.138000
     18 H9_0        11.1530    -0.7680     2.9590 hn         1 UNK       0.321700
     19 C8_0        12.1120     0.9210     0.7870 c3         1 UNK       0.166900
     20 C9_0        12.9790     2.2050     0.7290 c3         1 UNK      -0.087400
     21 N3_0        13.0490    -0.1250     1.2540 n3         1 UNK      -0.823200
     22 C12         11.5050     0.5510    -0.5720 c3         1 UNK      -0.104100
     23 C10         14.0300     2.0250     1.8420 c3         1 UNK      -0.103400
     24 H0_0        12.3770     3.1110     0.8470 hc         1 UNK       0.066700
     25 H1_0        13.4600     2.2410    -0.2590 hc         1 UNK       0.066700
     26 C11         13.9140     0.5370     2.2630 c3         1 UNK       0.151800
     27 H10         13.6430    -0.3530     0.4480 hn         1 UNK       0.368800
     28 H13         10.8320     1.3500    -0.9100 hc         1 UNK       0.051700
     29 H14         10.9380    -0.3880    -0.5150 hc         1 UNK       0.051700
     30 H15         12.3040     0.4350    -1.3170 hc         1 UNK       0.051700
     31 H2_0        13.8470     2.6960     2.6910 hc         1 UNK       0.052700
     32 H3_0        15.0340     2.2530     1.4640 hc         1 UNK       0.052700
     33 H4_0        13.4450     0.4410     3.2540 h1         1 UNK       0.048200
     34 H5_0        14.8800     0.0220     2.3070 h1         1 UNK       0.048200
@<TRIPOS>BOND
     1     1     2 1   
     2     1     3 2   
     3     1     4 1   
     4     2     5 ar  
     5     2     6 ar  
     6     4     7 1   
     7     4     8 1   
     8     5     9 ar  
     9     5    10 1   
    10     6    11 ar  
    11     6    12 1   
    12     9    13 ar  
    13     9    14 1   
    14    11    13 ar  
    15    11    15 1   
    16    12    16 2   
    17    13    17 1   
    18    15    16 1   
    19    15    18 1   
    20    16    19 1   
    21    19    20 1   
    22    19    21 1   
    23    19    22 1   
    24    20    23 1   
    25    20    24 1   
    26    20    25 1   
    27    21    26 1   
    28    21    27 1   
    29    22    28 1   
    30    22    29 1   
    31    22    30 1   
    32    23    26 1   
    33    23    31 1   
    34    23    32 1   
    35    26    33 1   
    36    26    34 1   
@<TRIPOS>SUBSTRUCTURE
     1 UNK         1 TEMP              0 ****  ****    0 ROOT
