@<TRIPOS>MOLECULE
UNK
   51    54     1     0     0
SMALL
bcc


@<TRIPOS>ATOM
      1 C1_0        18.2080     6.7980     5.3320 c3         1 UNK      -0.068100
      2 C2_0        16.9170     7.5960     5.3880 c3         1 UNK      -0.321600
      3 H2_0        18.7280     6.9330     4.3740 hc         1 UNK       0.048700
      4 H3_0        18.8920     7.0820     6.1410 hc         1 UNK       0.048700
      5 H4_0        17.9710     5.7320     5.4420 hc         1 UNK       0.048700
      6 S1_0        17.1400     9.3570     5.1740 s6         1 UNK       1.453900
      7 H5_0        16.2090     7.3090     4.5990 h1         1 UNK       0.117200
      8 H6_0        16.4000     7.5020     6.3530 h1         1 UNK       0.117200
      9 O1_0        15.8240     9.9580     5.1380 o          1 UNK      -0.648300
     10 O2_0        18.1090     9.8470     6.1360 o          1 UNK      -0.648300
     11 N1_0        17.8610     9.5430     3.6980 nh         1 UNK      -0.780500
     12 C3_0        17.3010     9.0010     2.5030 ca         1 UNK       0.134600
     13 H7_0        18.8940     9.4010     3.7860 hn         1 UNK       0.459800
     14 C4_0        15.9380     9.0670     2.1870 ca         1 UNK      -0.149000
     15 C8_0        18.1770     8.4310     1.5750 ca         1 UNK      -0.139000
     16 C5_0        15.4840     8.5820     0.9620 ca         1 UNK      -0.150000
     17 H8_0        15.2280     9.5070     2.8840 ha         1 UNK       0.175000
     18 C7_0        17.7500     7.9850     0.3180 ca         1 UNK       0.001200
     19 H10         19.2350     8.3570     1.8280 ha         1 UNK       0.150000
     20 C6_0        16.3750     8.0630     0.0220 ca         1 UNK       0.090100
     21 H9_0        14.4220     8.6530     0.7390 ha         1 UNK       0.149000
     22 C9_0        18.7880     7.5130    -0.6240 cc         1 UNK      -0.073400
     23 O4_0        15.9800     7.6060    -1.2290 os         1 UNK      -0.248200
     24 C10         18.9410     8.0770    -1.8660 cd         1 UNK       0.016600
     25 C13         19.7940     6.5800    -0.2240 cc         1 UNK      -0.025800
     26 C17         14.6350     7.4360    -1.5010 ca         1 UNK       0.029100
     27 N2_0        20.0100     7.8130    -2.6920 n          1 UNK      -0.342000
     28 H11         18.2340     8.8060    -2.2530 h4         1 UNK       0.167000
     29 C12         20.8870     6.3380    -1.0850 cd         1 UNK      -0.201900
     30 C14         19.9810     5.7480     0.9170 cc         1 UNK      -0.210000
     31 C18         13.7670     8.4960    -1.7720 ca         1 UNK      -0.089000
     32 C22         14.1450     6.1300    -1.6090 ca         1 UNK       0.159900
     33 C11         21.0510     6.9430    -2.3620 c          1 UNK       0.725100
     34 C16         20.1210     8.5180    -3.9690 c3         1 UNK       0.065300
     35 N3_0        21.7030     5.4070    -0.4920 na         1 UNK      -0.141100
     36 C15         21.1670     5.0610     0.7190 cd         1 UNK      -0.113300
     37 H12         19.3260     5.6500     1.7750 ha         1 UNK       0.158000
     38 C19         12.4390     8.2530    -2.1310 ca         1 UNK      -0.175000
     39 H17         14.1500     9.5120    -1.7030 ha         1 UNK       0.159000
     40 C21         12.8360     5.8480    -1.9710 ca         1 UNK      -0.205000
     41 F1_0        14.9850     5.0930    -1.3490 f          1 UNK      -0.113900
     42 O3_0        22.0040     6.7510    -3.1730 o          1 UNK      -0.656500
     43 H14         20.0470     7.8150    -4.8070 h1         1 UNK       0.059033
     44 H15         19.3140     9.2520    -4.0370 h1         1 UNK       0.059033
     45 H16         21.0850     9.0310    -4.0260 h1         1 UNK       0.059033
     46 H1_0        22.6640     5.2190    -0.7810 hn         1 UNK       0.315700
     47 H13         21.6740     4.3700     1.3820 h4         1 UNK       0.170000
     48 C20         12.0090     6.9340    -2.2260 ca         1 UNK       0.155900
     49 H18         11.7570     9.0750    -2.3390 ha         1 UNK       0.160000
     50 H19         12.4780     4.8220    -2.0340 ha         1 UNK       0.171000
     51 F2_0        10.7150     6.6750    -2.5810 f          1 UNK      -0.129900
@<TRIPOS>BOND
     1     1     2 1   
     2     1     3 1   
     3     1     4 1   
     4     1     5 1   
     5     2     6 1   
     6     2     7 1   
     7     2     8 1   
     8     6     9 2   
     9     6    10 2   
    10     6    11 1   
    11    11    12 1   
    12    11    13 1   
    13    12    14 ar  
    14    12    15 ar  
    15    14    16 ar  
    16    14    17 1   
    17    15    18 ar  
    18    15    19 1   
    19    16    20 ar  
    20    16    21 1   
    21    18    20 ar  
    22    18    22 1   
    23    20    23 1   
    24    22    24 2   
    25    22    25 1   
    26    23    26 1   
    27    24    27 1   
    28    24    28 1   
    29    25    29 2   
    30    25    30 1   
    31    26    31 ar  
    32    26    32 ar  
    33    27    33 1   
    34    27    34 1   
    35    29    33 1   
    36    29    35 1   
    37    30    36 2   
    38    30    37 1   
    39    31    38 ar  
    40    31    39 1   
    41    32    40 ar  
    42    32    41 1   
    43    33    42 2   
    44    34    43 1   
    45    34    44 1   
    46    34    45 1   
    47    35    36 1   
    48    35    46 1   
    49    36    47 1   
    50    38    48 ar  
    51    38    49 1   
    52    40    48 ar  
    53    40    50 1   
    54    48    51 1   
@<TRIPOS>SUBSTRUCTURE
     1 UNK         1 TEMP              0 ****  ****    0 ROOT
